OPT_V10/Two_days_MCY3_MIQCPM1/powerflow_results_t21.txt
Pandapower Network Debug Info
==================================================

BUS:
       vm_pu  va_degree      p_mw    q_mvar
0   0.992215   0.154425  0.001111  0.001120
1   0.987632   0.254863  0.001535  0.002347
2   0.983709   0.348411  0.001802  0.003158
3   0.987722   0.253469  0.002902  0.004800
4   0.999884   0.000783  0.011666  0.010733
5   0.999872   0.000830  0.009261  0.008420
6   0.999862   0.000863  0.012196  0.010681
7   0.999928   0.000606  0.000000  0.000000
8   0.999928   0.000613  0.000000  0.000000
9   1.000000   0.000000 -0.040646 -0.046379
10  1.000000   0.000006  0.000000  0.000000
--------------------------------------------------

LINE:
   p_from_mw  q_from_mvar   p_to_mw  q_to_mvar         pl_mw       ql_mvar  i_from_ka   i_to_ka      i_ka  vm_from_pu  va_from_degree  vm_to_pu  va_to_degree  loading_percent
0   0.040636     0.042379 -0.040633  -0.042376  3.371901e-06  2.629127e-06   0.002260  0.002260  0.002260    1.000000        0.000006  0.999928      0.000606         0.982559
1   0.033125     0.029836 -0.033124  -0.029835  1.537101e-06  1.198503e-06   0.001716  0.001716  0.001716    0.999928        0.000606  0.999884      0.000783         0.746109
2   0.007498     0.011541 -0.007409  -0.011471  8.859771e-05  6.908110e-05   0.019865  0.019865  0.019865    0.999928        0.000613  0.992215      0.154425         8.637132
3  -0.021457    -0.019101  0.021458   0.019101  2.854705e-07  2.225860e-07   0.001106  0.001106  0.001106    0.999872        0.000830  0.999884      0.000783         0.480811
4  -0.012196    -0.010681  0.012196   0.010682  1.285811e-07  1.002568e-07   0.000624  0.000624  0.000624    0.999862        0.000863  0.999872      0.000830         0.271347
5  -0.003349    -0.005515  0.003374   0.005535  2.525007e-05  1.968790e-05   0.009429  0.009429  0.009429    0.987632        0.254863  0.992215      0.154425         4.099771
6  -0.002902    -0.004800  0.002923   0.004817  2.153128e-05  1.678830e-05   0.008197  0.008197  0.008197    0.987722        0.253469  0.992215      0.154425         3.563698
7  -0.001802    -0.003158  0.001814   0.003168  1.235899e-05  9.636508e-06   0.005335  0.005335  0.005335    0.983709        0.348411  0.987632      0.254863         2.319617
--------------------------------------------------

TRAFO:
    p_hv_mw  q_hv_mvar   p_lv_mw  q_lv_mvar    pl_mw  ql_mvar   i_hv_ka   i_lv_ka  vm_hv_pu  va_hv_degree  vm_lv_pu  va_lv_degree  loading_percent
0  0.007508   0.012540 -0.007498  -0.011541  0.00001    0.001  0.000563  0.019865  0.999928      0.000606  0.999928      0.000613         0.146169
1  0.040646   0.046379 -0.040636  -0.042379  0.00001    0.004  0.000509  0.002260  1.000000      0.000000  1.000000      0.000006         0.154174
--------------------------------------------------
